&share
 wrf_core = 'ARW',
 max_dom = 1,
 start_date = '2018-08-01_00:00:00',
 end_date   = '2018-08-31_00:00:00',
 interval_seconds = 21600
 io_form_geogrid = 2,
/

&ungrib
 out_format = 'WPS',
 prefix = 'ATMFILE',
/

