 &time_control
 run_days                            = 0,
 run_hours                           = 0,
 run_minutes                         = 0,
 run_seconds                         = 0,
 start_year                          = 2018, 2018,  2018,
 start_month                         = 08,   08,    08,  
 start_day                           = 01,   01,    01,  
 start_hour                          = 00,   00,    00,  
 start_minute                        = 00,   00,    00,  
 start_second                        = 00,   00,    00, 
 end_year                            = 2018, 2018,  2018,
 end_month                           = 08,   08,    08,  
 end_day                             = 10,   10,    10,  
 end_hour                            = 00,   00,    00,  
 end_minute                          = 00,   00,    00, 
 end_second                          = 00,   00,    00, 
 interval_seconds                    = 21600,
 input_from_file                     = .true.,.true.,.true.,
 history_interval                    = 180,  180,  180, 
 frames_per_outfile                  = 8, 8, 8,
 restart                             = .false.,
 restart_interval                    = 500000,
 io_form_history                     = 2
 io_form_restart                     = 2
 io_form_input                       = 2
 io_form_auxinput2 		             = 2
 io_form_boundary                    = 2
 debug_level                         = 0
 /

 &domains
 time_step                           = 120,
 time_step_fract_num                 = 0,
 time_step_fract_den                 = 1,
 max_dom                             = 3,
 e_we                                = 171,    161,  191,  
 e_sn                                = 134,    161,  191,
 e_vert                              = 21,     21,   21,
 auto_levels_opt                     = 0,
 eta_levels                          = 1.000, 0.988, 0.976, 0.958, 0.933, 
                                      0.901, 0.862, 0.816, 0.763, 0.703, 
                                      0.636, 0.562, 0.481, 0.392, 0.302,
                                      0.225, 0.165, 0.120, 0.080, 0.040,
                                      0.000
 p_top_requested                     = 10000,
 num_metgrid_levels                  = 38,
 num_metgrid_soil_levels             = 4,
 dx                                  = 50000, 10000, 2000,  
 dy                                  = 50000, 10000, 2000,
 grid_id                             = 1,     2,     3,   
 parent_id                           = 0,     1,     2,
 i_parent_start                      = 1,     65,    75,
 j_parent_start                      = 1,     40,    40,
 parent_grid_ratio                   = 1,     5,     5,
 parent_time_step_ratio              = 1,     5,     10,
 feedback                            = 0,
 smooth_option                       = 0
 /

 &physics
 mp_physics                          = 2,     2,    2,  
 ra_lw_physics                       = 5,     5,    5,
 ra_sw_physics                       = 5,     5,    5,
 radt                                = 6,     6,    6,
 sf_sfclay_physics                   = 1,     1,    1,
 sf_surface_physics                  = 2,     2,    2,
 bl_pbl_physics                      = 1,     1,    1,
 bldt                                = 1,     1,    1,
 cu_physics                          = 5,     5,    0,
 cudt                                = 6,     6,    6,
 isfflx                              = 1,
 ifsnow                              = 1,
 icloud                              = 1,
 surface_input_source                = 1,
 num_soil_layers                     = 4,
 sf_urban_physics                    = 0,     0,    0,
 /

&fdda
 grid_fdda                           = 1,     0,     0,
 gfdda_inname                        = "wrffdda_d<domain>",
 gfdda_end_h                         = 0,    0,    0,
 gfdda_interval_m                    = 360,   360,   360,
 fgdt                                = 0,     0,     0,
 if_no_pbl_nudging_uv                = 1,     1,     1,
 if_no_pbl_nudging_t                 = 1,     1,     1,
 if_no_pbl_nudging_q                 = 1,     1,     1,
 if_zfac_uv                          = 1,     1,     1,
 k_zfac_uv                           = 22,   10,    10,
 if_zfac_t                           = 1,     1,     1,
 k_zfac_t                            = 22,   10,    10,
 if_zfac_q                           = 1,     1,     1,
 k_zfac_q                            = 22,   10,    10,
 guv                                 = 0.0006,     0.0006,     0.0006,
 gt                                  = 0.0006,     0.0006,     0.0006,
 gq                                  = 0.0006,     0.0006,     0.0006,
 if_ramping                          = 1,
 dtramp_min                          = 60.0,
 io_form_gfdda                       = 2,
/

 &dynamics
 w_damping                           = 1,
 diff_opt                            = 1,
 km_opt                              = 4,
 diff_6th_opt                        = 0,      0,      0,    
 diff_6th_factor                     = 0.12,   0.12,   0.12,  
 base_temp                           = 290.
 damp_opt                            = 1,
 zdamp                               = 5000.,  5000.,  5000., 
 dampcoef                            = 0.2,    0.2,    0.2, 
 khdif                               = 0,      0,      0,    
 kvdif                               = 0,      0,      0,     
 non_hydrostatic                     = .true., .true., .true.,
 moist_adv_opt                       = 1,      1,      1,     
 scalar_adv_opt                      = 1,      1,      1,   
 hybrid_opt                          = 0, 
 /

 &bdy_control
 spec_bdy_width                      = 5,
 spec_zone                           = 1,
 relax_zone                          = 4,
 specified                           = .true., .false.,.false.,
 nested                              = .false., .true.,.true.,
 /

 &grib2
 /

 &namelist_quilt
 nio_tasks_per_group = 0,
 nio_groups = 1,
 /
